*Heading
** Job name: Job-1 Model name: Model-1
** Generated by: Abaqus/CAE 2022
*Preprint, echo=NO, model=NO, history=NO, contact=NO
**
** PARTS
**
*Part, name=SLJ
*Node
      1,         145., -0.200000003
      2,         145.,  -2.20000005
      3,         240.,  -2.20000005
      4,         240., -0.200000003
      5,          95., -0.200000003
      6,          95.,  -2.20000005
      7,          95.,           0.
      8,          95.,           2.
      9,           0.,           2.
     10,           0.,           0.
     11,         145.,           0.
     12,         145.,           2.
     13,         145., -0.300000012
     14,         145., -0.448396593
     15,         145., -0.668612063
     16,         145., -0.995404303
     17,         145.,  -1.48035288
     18,   145.100006,  -2.20000005
     19,   145.202042,  -2.20000005
     20,   145.306183,  -2.20000005
** ... 4016 like lines cut
*Element, type=CPE4R
  1,    1,   13, 1149,  318
  2,   13,   14, 1150, 1149
  3,   14,   15, 1151, 1150
  4,   15,   16, 1152, 1151
  5,   16,   17, 1153, 1152
  6,   17,    2,   18, 1153
  7,  318, 1149, 1154,  317
  8, 1149, 1150, 1155, 1154
  9, 1150, 1151, 1156, 1155
 10, 1151, 1152, 1157, 1156
 11, 1152, 1153, 1158, 1157
 12, 1153,   18,   19, 1158
 13,  317, 1154, 1159,  316
 14, 1154, 1155, 1160, 1159
 15, 1155, 1156, 1161, 1160
 16, 1156, 1157, 1162, 1161
 17, 1157, 1158, 1163, 1162
 18, 1158,   19,   20, 1163
 19,  316, 1159, 1164,  315
 20, 1159, 1160, 1165, 1164
** ... 3574 like lines cut
*Nset, nset="Substrate 1"
    7,    8,    9,   10,   11,   12,  580,  581,  582,  583,  584,  585,  586,  587,  588,  589
  590,  591,  592,  593,  594,  595,  596,  597,  598,  599,  600,  601,  602,  603,  604,  605
  606,  607,  608,  609,  610,  611,  612,  613,  614,  615,  616,  617,  618,  619,  620,  621
  622,  623,  624,  625,  626,  627,  628,  629,  630,  631,  632,  633,  634,  635,  636,  637
  638,  639,  640,  641,  642,  643,  644,  645,  646,  647,  648,  649,  650,  651,  652,  653
  654,  655,  656,  657,  658,  659,  660,  661,  662,  663,  664,  665,  666,  667,  668,  669
  670,  671,  672,  673,  674,  675,  676,  677,  678,  679,  680,  681,  682,  683,  684,  685
  686,  687,  688,  689,  690,  691,  692,  693,  694,  695,  696,  697,  698,  699,  700,  701
  702,  703,  704,  705,  706,  707,  708,  709,  710,  711,  712,  713,  714,  715,  716,  717
  718,  719,  720,  721,  722,  723,  724,  725,  726,  727,  728,  729,  730,  731,  732,  733
  734,  735,  736,  737,  738,  739,  740,  741,  742,  743,  744,  745,  746,  747,  748,  749
  750,  751,  752,  753,  754,  755,  756,  757,  758,  759,  760,  761,  762,  763,  764,  765
  766,  767,  768,  769,  770,  771,  772,  773,  774,  775,  776,  777,  778,  779,  780,  781
  782,  783,  784,  785,  786,  787,  788,  789,  790,  791,  792,  793,  794,  795,  796,  797
  798,  799,  800,  801,  802,  803,  804,  805,  806,  807,  808,  809,  810,  811,  812,  813
  814,  815,  816,  817,  818,  819,  820,  821,  822,  823,  824,  825,  826,  827,  828,  829
  830,  831,  832,  833,  834,  835,  836,  837,  838,  839,  840,  841,  842,  843,  844,  845
  846,  847,  848,  849,  850,  851,  852,  853,  854,  855,  856,  857,  858,  859,  860,  861
  862,  863,  864,  865,  866,  867,  868,  869,  870,  871,  872,  873,  874,  875,  876,  877
  878,  879,  880,  881,  882,  883,  884,  885,  886,  887,  888,  889,  890,  891,  892,  893
** ... 103 like lines cut
*Elset, elset="Substrate 1"
 1669, 1670, 1671, 1672, 1673, 1674, 1675, 1676, 1677, 1678, 1679, 1680, 1681, 1682, 1683, 1684
 1685, 1686, 1687, 1688, 1689, 1690, 1691, 1692, 1693, 1694, 1695, 1696, 1697, 1698, 1699, 1700
 1701, 1702, 1703, 1704, 1705, 1706, 1707, 1708, 1709, 1710, 1711, 1712, 1713, 1714, 1715, 1716
 1717, 1718, 1719, 1720, 1721, 1722, 1723, 1724, 1725, 1726, 1727, 1728, 1729, 1730, 1731, 1732
 1733, 1734, 1735, 1736, 1737, 1738, 1739, 1740, 1741, 1742, 1743, 1744, 1745, 1746, 1747, 1748
 1749, 1750, 1751, 1752, 1753, 1754, 1755, 1756, 1757, 1758, 1759, 1760, 1761, 1762, 1763, 1764
 1765, 1766, 1767, 1768, 1769, 1770, 1771, 1772, 1773, 1774, 1775, 1776, 1777, 1778, 1779, 1780
 1781, 1782, 1783, 1784, 1785, 1786, 1787, 1788, 1789, 1790, 1791, 1792, 1793, 1794, 1795, 1796
 1797, 1798, 1799, 1800, 1801, 1802, 1803, 1804, 1805, 1806, 1807, 1808, 1809, 1810, 1811, 1812
 1813, 1814, 1815, 1816, 1817, 1818, 1819, 1820, 1821, 1822, 1823, 1824, 1825, 1826, 1827, 1828
 1829, 1830, 1831, 1832, 1833, 1834, 1835, 1836, 1837, 1838, 1839, 1840, 1841, 1842, 1843, 1844
 1845, 1846, 1847, 1848, 1849, 1850, 1851, 1852, 1853, 1854, 1855, 1856, 1857, 1858, 1859, 1860
 1861, 1862, 1863, 1864, 1865, 1866, 1867, 1868, 1869, 1870, 1871, 1872, 1873, 1874, 1875, 1876
 1877, 1878, 1879, 1880, 1881, 1882, 1883, 1884, 1885, 1886, 1887, 1888, 1889, 1890, 1891, 1892
 1893, 1894, 1895, 1896, 1897, 1898, 1899, 1900, 1901, 1902, 1903, 1904, 1905, 1906, 1907, 1908
 1909, 1910, 1911, 1912, 1913, 1914, 1915, 1916, 1917, 1918, 1919, 1920, 1921, 1922, 1923, 1924
 1925, 1926, 1927, 1928, 1929, 1930, 1931, 1932, 1933, 1934, 1935, 1936, 1937, 1938, 1939, 1940
 1941, 1942, 1943, 1944, 1945, 1946, 1947, 1948, 1949, 1950, 1951, 1952, 1953, 1954, 1955, 1956
 1957, 1958, 1959, 1960, 1961, 1962, 1963, 1964, 1965, 1966, 1967, 1968, 1969, 1970, 1971, 1972
 1973, 1974, 1975, 1976, 1977, 1978, 1979, 1980, 1981, 1982, 1983, 1984, 1985, 1986, 1987, 1988
** ... 85 like lines cut
*Nset, nset="Substrate 2"
    1,    2,    3,    4,    5,    6,   13,   14,   15,   16,   17,   18,   19,   20,   21,   22
   23,   24,   25,   26,   27,   28,   29,   30,   31,   32,   33,   34,   35,   36,   37,   38
   39,   40,   41,   42,   43,   44,   45,   46,   47,   48,   49,   50,   51,   52,   53,   54
   55,   56,   57,   58,   59,   60,   61,   62,   63,   64,   65,   66,   67,   68,   69,   70
   71,   72,   73,   74,   75,   76,   77,   78,   79,   80,   81,   82,   83,   84,   85,   86
   87,   88,   89,   90,   91,   92,   93,   94,   95,   96,   97,   98,   99,  100,  101,  102
  103,  104,  105,  106,  107,  108,  109,  110,  111,  112,  113,  114,  115,  116,  117,  118
  119,  120,  121,  122,  123,  124,  125,  126,  127,  128,  129,  130,  131,  132,  133,  134
  135,  136,  137,  138,  139,  140,  141,  142,  143,  144,  145,  146,  147,  148,  149,  150
  151,  152,  153,  154,  155,  156,  157,  158,  159,  160,  161,  162,  163,  164,  165,  166
  167,  168,  169,  170,  171,  172,  173,  174,  175,  176,  177,  178,  179,  180,  181,  182
  183,  184,  185,  186,  187,  188,  189,  190,  191,  192,  193,  194,  195,  196,  197,  198
  199,  200,  201,  202,  203,  204,  205,  206,  207,  208,  209,  210,  211,  212,  213,  214
  215,  216,  217,  218,  219,  220,  221,  222,  223,  224,  225,  226,  227,  228,  229,  230
  231,  232,  233,  234,  235,  236,  237,  238,  239,  240,  241,  242,  243,  244,  245,  246
  247,  248,  249,  250,  251,  252,  253,  254,  255,  256,  257,  258,  259,  260,  261,  262
  263,  264,  265,  266,  267,  268,  269,  270,  271,  272,  273,  274,  275,  276,  277,  278
  279,  280,  281,  282,  283,  284,  285,  286,  287,  288,  289,  290,  291,  292,  293,  294
  295,  296,  297,  298,  299,  300,  301,  302,  303,  304,  305,  306,  307,  308,  309,  310
  311,  312,  313,  314,  315,  316,  317,  318,  319,  320,  321,  322,  323,  324,  325,  326
** ... 103 like lines cut
*Elset, elset="Substrate 2", generate
    1,  1668,     1
*Nset, nset=Adhesive
    1,    5,    7,   11,  319,  320,  321,  322,  323,  324,  325,  326,  327,  328,  329,  330
  331,  332,  333,  334,  335,  336,  337,  338,  339,  340,  341,  342,  343,  344,  345,  346
  347,  348,  349,  350,  351,  352,  353,  354,  355,  356,  357,  358,  359,  360,  361,  362
  363,  364,  365,  366,  367,  368,  369,  370,  371,  372,  373,  374,  375,  376,  377,  378
  379,  380,  381,  382,  383,  384,  385,  386,  387,  388,  389,  390,  391,  392,  393,  394
  395,  396,  397,  398,  399,  400,  401,  402,  403,  404,  405,  406,  407,  408,  409,  410
  411,  412,  413,  414,  415,  416,  417,  418,  419,  420,  421,  422,  423,  424,  425,  426
  427,  428,  429,  430,  431,  432,  433,  434,  435,  436,  437,  438,  439,  440,  441,  442
  443,  444,  445,  446,  886,  887,  888,  889,  890,  891,  892,  893,  894,  895,  896,  897
  898,  899,  900,  901,  902,  903,  904,  905,  906,  907,  908,  909,  910,  911,  912,  913
  914,  915,  916,  917,  918,  919,  920,  921,  922,  923,  924,  925,  926,  927,  928,  929
  930,  931,  932,  933,  934,  935,  936,  937,  938,  939,  940,  941,  942,  943,  944,  945
  946,  947,  948,  949,  950,  951,  952,  953,  954,  955,  956,  957,  958,  959,  960,  961
  962,  963,  964,  965,  966,  967,  968,  969,  970,  971,  972,  973,  974,  975,  976,  977
  978,  979,  980,  981,  982,  983,  984,  985,  986,  987,  988,  989,  990,  991,  992,  993
  994,  995,  996,  997,  998,  999, 1000, 1001, 1002, 1003, 1004, 1005, 1006, 1007, 1008, 1009
 1010, 1011, 1012, 1013, 1014, 1015, 3269, 3270, 3271, 3272, 3273, 3274, 3275, 3276, 3277, 3278
 3279, 3280, 3281, 3282, 3283, 3284, 3285, 3286, 3287, 3288, 3289, 3290, 3291, 3292, 3293, 3294
 3295, 3296, 3297, 3298, 3299, 3300, 3301, 3302, 3303, 3304, 3305, 3306, 3307, 3308, 3309, 3310
 3311, 3312, 3313, 3314, 3315, 3316, 3317, 3318, 3319, 3320, 3321, 3322, 3323, 3324, 3325, 3326
** ... 5 like lines cut
*Elset, elset=Adhesive, generate
 2563,  2820,     1
*Nset, nset=Substrates
    1,    2,    3,    4,    5,    6,    7,    8,    9,   10,   11,   12,   13,   14,   15,   16
   17,   18,   19,   20,   21,   22,   23,   24,   25,   26,   27,   28,   29,   30,   31,   32
   33,   34,   35,   36,   37,   38,   39,   40,   41,   42,   43,   44,   45,   46,   47,   48
   49,   50,   51,   52,   53,   54,   55,   56,   57,   58,   59,   60,   61,   62,   63,   64
   65,   66,   67,   68,   69,   70,   71,   72,   73,   74,   75,   76,   77,   78,   79,   80
   81,   82,   83,   84,   85,   86,   87,   88,   89,   90,   91,   92,   93,   94,   95,   96
   97,   98,   99,  100,  101,  102,  103,  104,  105,  106,  107,  108,  109,  110,  111,  112
  113,  114,  115,  116,  117,  118,  119,  120,  121,  122,  123,  124,  125,  126,  127,  128
  129,  130,  131,  132,  133,  134,  135,  136,  137,  138,  139,  140,  141,  142,  143,  144
  145,  146,  147,  148,  149,  150,  151,  152,  153,  154,  155,  156,  157,  158,  159,  160
  161,  162,  163,  164,  165,  166,  167,  168,  169,  170,  171,  172,  173,  174,  175,  176
  177,  178,  179,  180,  181,  182,  183,  184,  185,  186,  187,  188,  189,  190,  191,  192
  193,  194,  195,  196,  197,  198,  199,  200,  201,  202,  203,  204,  205,  206,  207,  208
  209,  210,  211,  212,  213,  214,  215,  216,  217,  218,  219,  220,  221,  222,  223,  224
  225,  226,  227,  228,  229,  230,  231,  232,  233,  234,  235,  236,  237,  238,  239,  240
  241,  242,  243,  244,  245,  246,  247,  248,  249,  250,  251,  252,  253,  254,  255,  256
  257,  258,  259,  260,  261,  262,  263,  264,  265,  266,  267,  268,  269,  270,  271,  272
  273,  274,  275,  276,  277,  278,  279,  280,  281,  282,  283,  284,  285,  286,  287,  288
  289,  290,  291,  292,  293,  294,  295,  296,  297,  298,  299,  300,  301,  302,  303,  304
  305,  306,  307,  308,  309,  310,  311,  312,  313,  314,  315,  316,  317,  318,  319,  320
** ... 225 like lines cut
*Elset, elset=Substrates
    1,    2,    3,    4,    5,    6,    7,    8,    9,   10,   11,   12,   13,   14,   15,   16
   17,   18,   19,   20,   21,   22,   23,   24,   25,   26,   27,   28,   29,   30,   31,   32
   33,   34,   35,   36,   37,   38,   39,   40,   41,   42,   43,   44,   45,   46,   47,   48
   49,   50,   51,   52,   53,   54,   55,   56,   57,   58,   59,   60,   61,   62,   63,   64
   65,   66,   67,   68,   69,   70,   71,   72,   73,   74,   75,   76,   77,   78,   79,   80
   81,   82,   83,   84,   85,   86,   87,   88,   89,   90,   91,   92,   93,   94,   95,   96
   97,   98,   99,  100,  101,  102,  103,  104,  105,  106,  107,  108,  109,  110,  111,  112
  113,  114,  115,  116,  117,  118,  119,  120,  121,  122,  123,  124,  125,  126,  127,  128
  129,  130,  131,  132,  133,  134,  135,  136,  137,  138,  139,  140,  141,  142,  143,  144
  145,  146,  147,  148,  149,  150,  151,  152,  153,  154,  155,  156,  157,  158,  159,  160
  161,  162,  163,  164,  165,  166,  167,  168,  169,  170,  171,  172,  173,  174,  175,  176
  177,  178,  179,  180,  181,  182,  183,  184,  185,  186,  187,  188,  189,  190,  191,  192
  193,  194,  195,  196,  197,  198,  199,  200,  201,  202,  203,  204,  205,  206,  207,  208
  209,  210,  211,  212,  213,  214,  215,  216,  217,  218,  219,  220,  221,  222,  223,  224
  225,  226,  227,  228,  229,  230,  231,  232,  233,  234,  235,  236,  237,  238,  239,  240
  241,  242,  243,  244,  245,  246,  247,  248,  249,  250,  251,  252,  253,  254,  255,  256
  257,  258,  259,  260,  261,  262,  263,  264,  265,  266,  267,  268,  269,  270,  271,  272
  273,  274,  275,  276,  277,  278,  279,  280,  281,  282,  283,  284,  285,  286,  287,  288
  289,  290,  291,  292,  293,  294,  295,  296,  297,  298,  299,  300,  301,  302,  303,  304
  305,  306,  307,  308,  309,  310,  311,  312,  313,  314,  315,  316,  317,  318,  319,  320
** ... 189 like lines cut
*Nset, nset="Whole Model", generate
    1,  4036,     1
*Elset, elset="Whole Model", generate
    1,  3594,     1
*Nset, nset="Left Edge"
   9,  10, 733, 734, 735, 736, 737
*Elset, elset="Left Edge", generate
 2557,  2562,     1
*Nset, nset="Right Edge"
   3,   4, 166, 167, 168, 169, 170
*Elset, elset="Right Edge", generate
 889,  894,    1
*Nset, nset="Lower Adhesive Edge"
   1,   5, 319, 320, 321, 322, 323, 324, 325, 326, 327, 328, 329, 330, 331, 332
 333, 334, 335, 336, 337, 338, 339, 340, 341, 342, 343, 344, 345, 346, 347, 348
 349, 350, 351, 352, 353, 354, 355, 356, 357, 358, 359, 360, 361, 362, 363, 364
 365, 366, 367, 368, 369, 370, 371, 372, 373, 374, 375, 376, 377, 378, 379, 380
 381, 382, 383, 384, 385, 386, 387, 388, 389, 390, 391, 392, 393, 394, 395, 396
 397, 398, 399, 400, 401, 402, 403, 404, 405, 406, 407, 408, 409, 410, 411, 412
 413, 414, 415, 416, 417, 418, 419, 420, 421, 422, 423, 424, 425, 426, 427, 428
 429, 430, 431, 432, 433, 434, 435, 436, 437, 438, 439, 440, 441, 442, 443, 444
 445, 446
*Elset, elset="Lower Adhesive Edge"
  895,  896,  897,  898,  899,  900,  901,  902,  903,  904,  905,  906,  907,  908,  909,  910
  911,  912,  913,  914,  915,  916,  917,  918,  919,  920,  921,  922,  923,  924,  925,  926
  927,  928,  929,  930,  931,  932,  933,  934,  935,  936,  937,  938,  939,  940,  941,  942
  943,  944,  945,  946,  947,  948,  949,  950,  951,  952,  953,  954,  955,  956,  957,  958
  959,  960,  961,  962,  963,  964,  965,  966,  967,  968,  969,  970,  971,  972,  973,  974
  975,  976,  977,  978,  979,  980,  981,  982,  983,  984,  985,  986,  987,  988,  989,  990
  991,  992,  993,  994,  995,  996,  997,  998,  999, 1000, 1001, 1002, 1003, 1004, 1005, 1006
 1007, 1008, 1009, 1010, 1011, 1012, 1013, 1014, 1015, 1016, 1017, 1018, 1019, 1020, 1021, 1022
 1023, 2692, 2693, 2694, 2695, 2696, 2697, 2698, 2699, 2700, 2701, 2702, 2703, 2704, 2705, 2706
 2707, 2708, 2709, 2710, 2711, 2712, 2713, 2714, 2715, 2716, 2717, 2718, 2719, 2720, 2721, 2722
 2723, 2724, 2725, 2726, 2727, 2728, 2729, 2730, 2731, 2732, 2733, 2734, 2735, 2736, 2737, 2738
 2739, 2740, 2741, 2742, 2743, 2744, 2745, 2746, 2747, 2748, 2749, 2750, 2751, 2752, 2753, 2754
 2755, 2756, 2757, 2758, 2759, 2760, 2761, 2762, 2763, 2764, 2765, 2766, 2767, 2768, 2769, 2770
 2771, 2772, 2773, 2774, 2775, 2776, 2777, 2778, 2779, 2780, 2781, 2782, 2783, 2784, 2785, 2786
 2787, 2788, 2789, 2790, 2791, 2792, 2793, 2794, 2795, 2796, 2797, 2798, 2799, 2800, 2801, 2802
 2803, 2804, 2805, 2806, 2807, 2808, 2809, 2810, 2811, 2812, 2813, 2814, 2815, 2816, 2817, 2818
 2819, 2820
*Nset, nset="Right Vertex"
 4,
*Nset, nset="Left Vertex"
 10,
*Nset, nset="Left Edge Nodes"
   9,  10, 733, 734, 735, 736, 737
*Nset, nset="Right Edge Node"
 4,
*Nset, nset="Lower Adhesive Nodes"
   1,   5, 319, 320, 321, 322, 323, 324, 325, 326, 327, 328, 329, 330, 331, 332
 333, 334, 335, 336, 337, 338, 339, 340, 341, 342, 343, 344, 345, 346, 347, 348
 349, 350, 351, 352, 353, 354, 355, 356, 357, 358, 359, 360, 361, 362, 363, 364
 365, 366, 367, 368, 369, 370, 371, 372, 373, 374, 375, 376, 377, 378, 379, 380
 381, 382, 383, 384, 385, 386, 387, 388, 389, 390, 391, 392, 393, 394, 395, 396
 397, 398, 399, 400, 401, 402, 403, 404, 405, 406, 407, 408, 409, 410, 411, 412
 413, 414, 415, 416, 417, 418, 419, 420, 421, 422, 423, 424, 425, 426, 427, 428
 429, 430, 431, 432, 433, 434, 435, 436, 437, 438, 439, 440, 441, 442, 443, 444
 445, 446
** Section: Substrate 2
*Solid Section, elset="Substrate 2", material="Aluminum 2024 T3 Alcad"
25.,
** Section: Substrate 1
*Solid Section, elset="Substrate 1", material="Aluminum 2024 T3 Alcad"
25.,
** Section: Adhesive
*Solid Section, elset=Adhesive, material="Araldite 2015"
25.,
*End Part
**  
**
** ASSEMBLY
**
*Assembly, name=Assembly
**  
*Instance, name=SLJ, part=SLJ
*End Instance
**  
*End Assembly
** 
** MATERIALS
** 
*Material, name="Aluminum 2024 T3 Alcad"
*Density
 2.67e-09,
*Elastic
66000., 0.33
*Expansion
 2.32e-05,
*Material, name="Araldite 2015"
*Density
 1.4e-09,
*Elastic
1850., 0.4
*Expansion
 0.00012,
** ----------------------------------------------------------------
** 
** STEP: Displacement Step
** 
*Step, name="Displacement Step", nlgeom=YES, inc=10000
*Static
0.05, 1., 1e-20, 0.1
** 
** BOUNDARY CONDITIONS
** 
** Name: BC Disp Type: Displacement/Rotation
*Boundary
SLJ."Right Edge", 1, 1, 2.
SLJ."Right Edge", 2, 2
** Name: BC Fixed Type: Displacement/Rotation
*Boundary
SLJ."Left Edge", 1, 1
SLJ."Left Edge", 2, 2
** 
** CONTROLS
** 
*Controls, reset
*Controls, parameters=time incrementation
, , , , , , , 20, , , 
** 
** OUTPUT REQUESTS
** 
*Restart, write, frequency=0
** 
** FIELD OUTPUT: F-Output-1
** 
*Output, field
*Node Output
U, 
*Element Output, directions=YES
LE, PE, PEEQ, PEMAG, S, SDEG
** 
** HISTORY OUTPUT: HO-RF
** 
*Output, history
*Node Output, nset=SLJ."Left Edge"
RF1, 
** 
** HISTORY OUTPUT: HO-Disp
** 
*Node Output, nset=SLJ."Right Vertex"
U1, 
*End Step
